[General]
tkenv-plugin-path = ../../../etc/plugins

[Config Wireless01]
network = Serverconnection
sim-time-limit = 1000s

**.n = 5

**.tcpType = "TCP"

*.LocalServer.numTcpApps = 5
*.LocalServer.tcpApp[*].typename = "TCPGenericSrvApp"
*.LocalServer.tcpApp[0].localPort = 1001
*.LocalServer.tcpApp[1].localPort = 8000
*.LocalServer.tcpApp[2].localPort = 8001
*.LocalServer.tcpApp[3].localPort = 8002
*.LocalServer.tcpApp[4].localPort = 8003
*.LocalServer.tcpApp[5].localPort = 8004

#Simulação de uma Vídeo Stream em DASH utilizando TCP
*.host[*].numTcpApps = 1
*.host[*].tcpApp[*].typename = "TCPVideoStreamCliApp"
*.host[*].tcpApp[*].connectAddress = "LocalServer"
*.host[*].tcpApp[*].dataTransferMode = "object"
*.host[*].tcpApp[*].numRequestsPerSession = 1000
*.host[*].tcpApp[*].idleInterval = 0s
*.host[*].tcpApp[*].startTime = 0s
*.host[*].tcpApp[*].video_duration = 1000
*.host[*].tcpApp[*].thinkTime = 0s

*.host[0].tcpApp[0].connectPort = 1001
*.host[1].tcpApp[0].connectPort = 8000
*.host[2].tcpApp[0].connectPort = 8001
*.host[3].tcpApp[0].connectPort = 8002
*.host[4].tcpApp[0].connectPort = 8003
*.host[5].tcpApp[0].connectPort = 8004

**.wlan[*].bitrate = 1Mbps

#*.LocalServer.numPingApps = 1
#*.LocalServer.pingApp[0].destAddr = "GlobalServer"
#*.LocalServer.pingApp[0].stopTime = 10000s
#**.pingApp[0].sendInterval = 1000ms
**.internetCloud.networkLayer.delayer.config = xmldoc("internetCloud.xml")

#-----------------------------------------------------------------------------
[Config Wireless02]
extends = Wireless01

*.accessPoint.wlan[0].radio.displayCommunicationRange = true

*.host[*].mobilityType = "MassMobility"
*.host[*].mobility.changeInterval = truncnormal(2s, 0.5s)
*.host[*].mobility.changeAngleBy = normal(0deg, 30deg)
*.host[*].mobility.speed = truncnormal(20mps, 8mps)
*.host[*].mobility.updateInterval = 10ms
*.host[*].mobility.constraintAreaMaxX = 7000m
*.host[*].mobility.constraintAreaMaxY = 2000m
*.host[*].mobility.constraintAreaMinX = 0m
*.host[*].mobility.constraintAreaMinY = 350m


#-----------------------------------------------------------------------------
[Config Wireless03]
extends = Wireless01

#*.accessPoint.wlan[0].radio.displayCommunicationRange = true
#*.accessPoint1.wlan[0].radio.displayCommunicationRange = true

*.host[*].mobilityType = "LinearMobility"
*.host[*].mobility.speed = 5mps
*.host[*].mobility.angle = 0deg
*.host[0].mobility.initialX = 450m
*.host[1].mobility.initialX = 500m
*.host[2].mobility.initialX = 550m
*.host[3].mobility.initialX = 600m
*.host[4].mobility.initialX = 6000m
*.host[4].mobility.initialY = 700m
*.host[5].mobility.initialY = 200m

#*.*.wlan[0].mac.maxQueueSize = 10

*.visualizer.mobilityVisualizer.displayVelocities = true
*.visualizer.mobilityVisualizer.displayMovementTrails = true